 ****** HSPICE  --  A-2007.09  32-BIT    (Aug 28 2007) 02:59:15 09/26/2014 winnt
  Copyright (C) 2007 Synopsys, Inc. All Rights Reserved.                        
  Unpublished-rights reserved under US copyright laws.
  This program is protected by law and is subject to the 
  terms and conditions of the license agreement found in:
    C:\synopsys\Hspice_A-2007.09\license.txt
  Use of this program is your acceptance to be bound by this 
  license agreement. HSPICE is the trademark of Synopsys, Inc.
  Input File: f:\3_tehran_mux21_iwo_ga_id ) acsij-2014-3-5-560\matlabcode_iwo_ga
  lic:  
  lic: FLEXlm: v8.5b 
  lic: USER:   Farshid              HOSTNAME: Farshid-PC 
  lic: HOSTID: "a4badbbd94a3 70f1a1ab2e44" PID:      1308 
  lic: Using FLEXlm license file: 
  lic: C:\synopsys\Hspice_A-2007.09\hspice_2007-09.lic 
  lic: Checkout 1 hspice;  Encryption code: AD47C1C891DA5D596A45 
  lic: License/Maintenance for hspice will expire on 31-dec-2020/2007.9 
  lic: NODE LOCKED license on hostid "a4badbbd94a3 70f1a1ab2e44" 
  lic:   
 Init: read install configuration file: C:\synopsys\Hspice_A-2007.09\meta.cfg
 Init: hspice initialization file: C:\synopsys\Hspice_A-2007.09\hspice.ini




 .options list node post

 .option scale=1u

 mp1 1 s vdd vdd pch l=0.18        w=0.21954397                                                                                                                                             			
 mp2 1 s 0 0 nch l=0.18            w=0.42517228                                                                                                                                                		
 mn1 y s f f nch l=0.18            w=1.61227782                                                                                                                                                                  			
 mn2 x 1 f f nch l=0.18            w=0.295673218                                                                                                                                                             			
                                                                                                                   			
 vdd vdd 0 5
 vx x 0 5v
 vy y 0 5v
 vs s 0 pulse 0  5  2n 1n 1n 10n 20n
 .tran 200p 200n
 .print tran v(x) v(y) v(s) v(f)

 .model  pch pmos  level=1
 .model  nch nmos  level=1

 .print tran power

 .param vdd=5

 .meas tran avgpower avg power from = 0 to = 20n
 .meas tran maxpower max power
 scientific notation:
 a=10**-18  f=10**-15  p=10**-12  n=10**-9  u=10**-6
 m=10**-3   k=10**3    x=10**6    g=10**9 

 ***********************************************************************
 ** runlvl is invoked, you can disable it by:
      a) Add option runlvl=0 to your current simulation job.
      b) Copy $installdir/hspice.ini to your HOME directory and
         customize it by adding option runlvl=0, which disables
         it for all of your simulation jobs.
      c) Re-invoke $installdir/bin/config program and unselect the
         option runlvl setting in box 'hspice.ini' which disables
         it for whole group simulation jobs.

 ** runlvl is invoked, some options are ignored or automatically set:
      Options below are automatically set(user setting will overwrite them):
      if runlvl=6,            .option bypass=0
      if runlvl=[1|2|3|4|5],  .option bypass=2

      Options below are ignored, they are replaced by automated algorithms:
        lvltim    dvdt      ft    fast   trtol  absvar  relvar
          relq  chgtol    dvtr    imin    itl3    rmax

 ** runlvl is invoked, actual option value used by HSPICE are:
       runlvl= 3       bypass= 2      mbypass=   2.00   bytol= 100.00u
 ***********************************************************************



 circuit parameter definitions
  parameter          =  value 

     0:vdd                                                     =   5.0000       
     0:avgpower                                                =   0.           
     0:maxpower                                                =   0.           




 constants  - tnom         kt           vt           gapsi        ni
            298.1500     4.116e-21     25.6918m      1.1156     1.256e+16  
1****** HSPICE  --  A-2007.09  32-BIT    (Aug 28 2007) 02:59:15 09/26/2014 winnt
 ******  
 *2:1 mux static nmos for article tehran                                        
  ******  mos   model parameters           tnom=  25.000 temp=  25.000          
 ******  
 ***************************************************************************
 *** common model parameters  model name:   0:pch      model type:pmos   ***
 ***************************************************************************
     names  values   units     names  values   units     names  values   units
     -----  ------   -----     -----  ------   -----     -----  ------   -----

   1*** geometry parameters ***
       ld=   0.    meters      lmlt=   1.00                wd=   0.    meters 
     wmlt=   1.00                xl=   0.    meters        xw=   0.    meters 
     lref=   0.    meters      wref=   0.    meters      lref=   0.    meters 
     wref=   0.    meters     xlref=   0.    meters     xwref=   0.    meters 
     lmin=   0.    meters      wmin=   0.    meters      lmax=   0.    meters 
     wmax=   0.    meters 

   2*** threshold voltage parameters ***
      vto=-133.88m volts        nss=   0.    1/cm**2      tpg=   1.00         
      phi= 579.84m volts      gamma= 527.63m v**0.5      bulk=  gnd           
    ngate=   0.    cm**3       nsub= 1.0e+15 1/cm**3   delvto=   0.    volts  

   3*** gate overlap capacitance parameters ***
     cgbo=   0.    f/meter     cgdo=   0.    f/meter     cgso=   0.    f/meter
     meto=   0.    meters 

   4*** gate capacitance parameters ***
    capop=   2.00               cf1=   0.    volts        cf2= 100.00m volts  
      cf3=   1.00  volts        cf4=  50.00               cf5= 666.67m        
      cf6= 500.00               xqc= 500.00m              tox= 100.00n meters 
      cox= 345.31u f/m**2 

   5*** diffusion parasitic parameters ***
      acm=   0.                  is=  10.00f amps          js=   0.    a/m**2 
      jsw=   0.    amp/m        nds=   1.00               cbd=   0.    farad  
      cbs=   0.    farad         cj= 101.85u f/m**2      cjsw=   0.    f/m    
   cjgate=   0.    f/m           mj= 500.00m             mjsw= 330.00m        
       pb= 800.00m volts        php= 800.00m volts         tt=   0.    secs   
     hdif=   0.    meters      ldif=   0.    meters        rd=   0.    ohms   
       rs=   0.    ohms         rsh=   0.    ohms/sq       fc=   0.           
    alpha=   0.                 vcr=   0.    volts      iirat=   0.           
      rdc=   0.    ohms         rsc=   0.    ohms           n=   1.00         
     vnds=  -1.00  volts  

   6*** temperature effect parameters ***
     tlev=   0.               tlevc=   0.                  eg=   1.11  ev     
     gap1= 702.00u ev/deg      gap2=   1.11k deg          xti=   0.           
      bex=  -1.50               tcv=   0.    v/deg k      trd=   0.    /deg   
      trs=   0.    /deg         cta=   0.    /deg         ctp=   0.    /deg   

   7*** noise parameters ***
       kf=   0.                  af=   1.00              nlev=   2.00         
   gdsnoi=   1.00         

   ***  level  1  model parameters  ***

   lambda=   0.    /v            kp=   8.63u a/v**2 
 ***************************************************************************
 *** common model parameters  model name:   0:nch      model type:nmos   ***
 ***************************************************************************
     names  values   units     names  values   units     names  values   units
     -----  ------   -----     -----  ------   -----     -----  ------   -----

   1*** geometry parameters ***
       ld=   0.    meters      lmlt=   1.00                wd=   0.    meters 
     wmlt=   1.00                xl=   0.    meters        xw=   0.    meters 
     lref=   0.    meters      wref=   0.    meters      lref=   0.    meters 
     wref=   0.    meters     xlref=   0.    meters     xwref=   0.    meters 
     lmin=   0.    meters      wmin=   0.    meters      lmax=   0.    meters 
     wmax=   0.    meters 

   2*** threshold voltage parameters ***
      vto= 133.88m volts        nss=   0.    1/cm**2      tpg=   1.00         
      phi= 579.84m volts      gamma= 527.63m v**0.5      bulk=  gnd           
    ngate=   0.    cm**3       nsub= 1.0e+15 1/cm**3   delvto=   0.    volts  

   3*** gate overlap capacitance parameters ***
     cgbo=   0.    f/meter     cgdo=   0.    f/meter     cgso=   0.    f/meter
     meto=   0.    meters 

   4*** gate capacitance parameters ***
    capop=   2.00               cf1=   0.    volts        cf2= 100.00m volts  
      cf3=   1.00  volts        cf4=  50.00               cf5= 666.67m        
      cf6= 500.00               xqc= 500.00m              tox= 100.00n meters 
      cox= 345.31u f/m**2 

   5*** diffusion parasitic parameters ***
      acm=   0.                  is=  10.00f amps          js=   0.    a/m**2 
      jsw=   0.    amp/m        nds=   1.00               cbd=   0.    farad  
      cbs=   0.    farad         cj= 101.85u f/m**2      cjsw=   0.    f/m    
   cjgate=   0.    f/m           mj= 500.00m             mjsw= 330.00m        
       pb= 800.00m volts        php= 800.00m volts         tt=   0.    secs   
     hdif=   0.    meters      ldif=   0.    meters        rd=   0.    ohms   
       rs=   0.    ohms         rsh=   0.    ohms/sq       fc=   0.           
    alpha=   0.                 vcr=   0.    volts      iirat=   0.           
      rdc=   0.    ohms         rsc=   0.    ohms           n=   1.00         
     vnds=  -1.00  volts  

   6*** temperature effect parameters ***
     tlev=   0.               tlevc=   0.                  eg=   1.11  ev     
     gap1= 702.00u ev/deg      gap2=   1.11k deg          xti=   0.           
      bex=  -1.50               tcv=   0.    v/deg k      trd=   0.    /deg   
      trs=   0.    /deg         cta=   0.    /deg         ctp=   0.    /deg   

   7*** noise parameters ***
       kf=   0.                  af=   1.00              nlev=   2.00         
   gdsnoi=   1.00         

   ***  level  1  model parameters  ***

   lambda=   0.    /v            kp=  20.72u a/v**2 

 **warning** dc voltage reset to initial transient source value
             in source        0:vs                  new dc=  0.0000D+00

1****** HSPICE  --  A-2007.09  32-BIT    (Aug 28 2007) 02:59:15 09/26/2014 winnt
 ******  
 *2:1 mux static nmos for article tehran                                        
  ******  circuit element summary          tnom=  25.000 temp=  25.000          
 ******  


 **** independent sources

     name         node1        node2      dc volt    ac mag    ac phase    type
        0:vdd            0:vdd            0:0           5.0000     0.         0.      dc   
        0:vx             0:x              0:0           5.0000     0.         0.      dc   
        0:vy             0:y              0:0           5.0000     0.         0.      dc   
        0:vs             0:s              0:0           0.         0.         0.      pulse
             initial value     0.     
             pulsed value.     5.0000 
             delay time...     2.0000n
             risetime.....     1.0000n
             falltime.....     1.0000n
             width........    10.0000n
             period.......    20.0000n



 **** mosfets
  
 element name       0:mp1          0:mp2          0:mn1          0:mn2      
 drain              0:1            0:1            0:y            0:x        
 gate               0:s            0:s            0:s            0:1        
 source             0:vdd          0:0            0:f            0:f        
 bulk               0:vdd          0:0            0:f            0:f        
 model              0:pch          0:nch          0:nch          0:nch      
 w eff            219.5440n      425.1723n        1.6123u      295.6732n    
 l eff            180.0000n      180.0000n      180.0000n      180.0000n    
 rd eff             0.             0.             0.             0.         
 rs eff             0.             0.             0.             0.         
 cdsat             10.0000f       10.0000f       10.0000f       10.0000f    
 cssat             10.0000f       10.0000f       10.0000f       10.0000f    
 capbd              0.             0.             0.             0.         
 capbs              0.             0.             0.             0.         
 temp              25.0000        25.0000        25.0000        25.0000     
 aic                                                                        
  
1****** HSPICE  --  A-2007.09  32-BIT    (Aug 28 2007) 02:59:15 09/26/2014 winnt
 ******  
 *2:1 mux static nmos for article tehran                                        
  ******  element node table                                                    
 ******  
 0                vdd           vx            vy            vs           
                 mp2:s         mp2:b        
 1                mp1:d         mp2:d         mn2:g        
 f                mn1:s         mn1:b         mn2:s         mn2:b        
 s                vs            mp1:g         mp2:g         mn1:g        
 vdd              vdd           mp1:s         mp1:b        
 x                vx            mn2:d        
 y                vy            mn1:d        
1****** HSPICE  --  A-2007.09  32-BIT    (Aug 28 2007) 02:59:15 09/26/2014 winnt
 ******  
 *2:1 mux static nmos for article tehran                                        
  ******  operating point information      tnom=  25.000 temp=  25.000          
 ******  
 ***** operating point status is voltage   simulation time is     0.     
    node    =voltage      node    =voltage      node    =voltage

 +0:1       =   5.0000  0:f       =   5.0000  0:s       =   0.     
 +0:vdd     =   5.0000  0:x       =   5.0000  0:y       =   5.0000 

 ******  
 *2:1 mux static nmos for article tehran                                        
  ******  transient analysis               tnom=  25.000 temp=  25.000          
 ******  
x

        time    voltage      voltage      voltage      voltage    
                     x            y            s            f     
    0.            5.0000       5.0000       0.           5.0000   
  200.00000p      5.0000       5.0000       0.           5.0000   
  400.00000p      5.0000       5.0000       0.           5.0000   
  600.00000p      5.0000       5.0000       0.           5.0000   
  800.00000p      5.0000       5.0000       0.           5.0000   
    1.00000n      5.0000       5.0000       0.           5.0000   
    1.20000n      5.0000       5.0000       0.           5.0000   
    1.40000n      5.0000       5.0000       0.           5.0000   
    1.60000n      5.0000       5.0000       0.           5.0000   
    1.80000n      5.0000       5.0000       0.           5.0000   
    2.00000n      5.0000       5.0000       0.           5.0000   
    2.20000n      5.0000       5.0000       1.0000       5.4340   
    2.40000n      5.0000       5.0000       2.0000       5.3333   
    2.60000n      5.0000       5.0000       3.0000       5.4384   
    2.80000n      5.0000       5.0000       4.0000       5.4364   
    3.00000n      5.0000       5.0000       5.0000       5.4031   
    3.20000n      5.0000       5.0000       5.0000       5.3247   
    3.40000n      5.0000       5.0000       5.0000       5.3094   
    3.60000n      5.0000       5.0000       5.0000       5.2988   
    3.80000n      5.0000       5.0000       5.0000       5.2918   
    4.00000n      5.0000       5.0000       5.0000       5.2863   
    4.20000n      5.0000       5.0000       5.0000       5.2809   
    4.40000n      5.0000       5.0000       5.0000       5.2766   
    4.60000n      5.0000       5.0000       5.0000       5.2740   
    4.80000n      5.0000       5.0000       5.0000       5.2715   
    5.00000n      5.0000       5.0000       5.0000       5.2690   
    5.20000n      5.0000       5.0000       5.0000       5.2664   
    5.40000n      5.0000       5.0000       5.0000       5.2639   
    5.60000n      5.0000       5.0000       5.0000       5.2613   
    5.80000n      5.0000       5.0000       5.0000       5.2590   
    6.00000n      5.0000       5.0000       5.0000       5.2575   
    6.20000n      5.0000       5.0000       5.0000       5.2561   
    6.40000n      5.0000       5.0000       5.0000       5.2546   
    6.60000n      5.0000       5.0000       5.0000       5.2532   
    6.80000n      5.0000       5.0000       5.0000       5.2517   
    7.00000n      5.0000       5.0000       5.0000       5.2503   
    7.20000n      5.0000       5.0000       5.0000       5.2488   
    7.40000n      5.0000       5.0000       5.0000       5.2474   
    7.60000n      5.0000       5.0000       5.0000       5.2459   
    7.80000n      5.0000       5.0000       5.0000       5.2445   
    8.00000n      5.0000       5.0000       5.0000       5.2430   
    8.20000n      5.0000       5.0000       5.0000       5.2421   
    8.40000n      5.0000       5.0000       5.0000       5.2414   
    8.60000n      5.0000       5.0000       5.0000       5.2406   
    8.80000n      5.0000       5.0000       5.0000       5.2399   
    9.00000n      5.0000       5.0000       5.0000       5.2391   
    9.20000n      5.0000       5.0000       5.0000       5.2384   
    9.40000n      5.0000       5.0000       5.0000       5.2377   
    9.60000n      5.0000       5.0000       5.0000       5.2369   
    9.80000n      5.0000       5.0000       5.0000       5.2362   
   10.00000n      5.0000       5.0000       5.0000       5.2354   
   10.20000n      5.0000       5.0000       5.0000       5.2347   
   10.40000n      5.0000       5.0000       5.0000       5.2339   
   10.60000n      5.0000       5.0000       5.0000       5.2332   
   10.80000n      5.0000       5.0000       5.0000       5.2325   
   11.00000n      5.0000       5.0000       5.0000       5.2317   
   11.20000n      5.0000       5.0000       5.0000       5.2310   
   11.40000n      5.0000       5.0000       5.0000       5.2302   
   11.60000n      5.0000       5.0000       5.0000       5.2295   
   11.80000n      5.0000       5.0000       5.0000       5.2288   
   12.00000n      5.0000       5.0000       5.0000       5.2283   
   12.20000n      5.0000       5.0000       5.0000       5.2278   
   12.40000n      5.0000       5.0000       5.0000       5.2273   
   12.60000n      5.0000       5.0000       5.0000       5.2269   
   12.80000n      5.0000       5.0000       5.0000       5.2264   
   13.00000n      5.0000       5.0000       5.0000       5.2259   
   13.20000n      5.0000       5.0000       4.0000       4.5552   
   13.40000n      5.0000       5.0000       3.0000       3.8127   
   13.60000n      5.0000       5.0000       2.0000       3.2649   
   13.80000n      5.0000       5.0000       1.0000       4.0517   
   14.00000n      5.0000       5.0000       0.           4.6845   
   14.20000n      5.0000       5.0000       0.           4.8348   
   14.40000n      5.0000       5.0000       0.           4.8520   
   14.60000n      5.0000       5.0000       0.           4.8561   
   14.80000n      5.0000       5.0000       0.           4.8588   
   15.00000n      5.0000       5.0000       0.           4.8595   
   15.20000n      5.0000       5.0000       0.           4.8601   
   15.40000n      5.0000       5.0000       0.           4.8607   
   15.60000n      5.0000       5.0000       0.           4.8611   
   15.80000n      5.0000       5.0000       0.           4.8616   
   16.00000n      5.0000       5.0000       0.           4.8620   
   16.20000n      5.0000       5.0000       0.           4.8624   
   16.40000n      5.0000       5.0000       0.           4.8628   
   16.60000n      5.0000       5.0000       0.           4.8632   
   16.80000n      5.0000       5.0000       0.           4.8636   
   17.00000n      5.0000       5.0000       0.           4.8640   
   17.20000n      5.0000       5.0000       0.           4.8645   
   17.40000n      5.0000       5.0000       0.           4.8646   
   17.60000n      5.0000       5.0000       0.           4.8647   
   17.80000n      5.0000       5.0000       0.           4.8647   
   18.00000n      5.0000       5.0000       0.           4.8647   
   18.20000n      5.0000       5.0000       0.           4.8647   
   18.40000n      5.0000       5.0000       0.           4.8647   
   18.60000n      5.0000       5.0000       0.           4.8647   
   18.80000n      5.0000       5.0000       0.           4.8647   
   19.00000n      5.0000       5.0000       0.           4.8647   
   19.20000n      5.0000       5.0000       0.           4.8648   
   19.40000n      5.0000       5.0000       0.           4.8648   
   19.60000n      5.0000       5.0000       0.           4.8648   
   19.80000n      5.0000       5.0000       0.           4.8648   
   20.00000n      5.0000       5.0000       0.           4.8648   
   20.20000n      5.0000       5.0000       0.           4.8648   
   20.40000n      5.0000       5.0000       0.           4.8648   
   20.60000n      5.0000       5.0000       0.           4.8648   
   20.80000n      5.0000       5.0000       0.           4.8648   
   21.00000n      5.0000       5.0000       0.           4.8648   
   21.20000n      5.0000       5.0000       0.           4.8647   
   21.40000n      5.0000       5.0000       0.           4.8647   
   21.60000n      5.0000       5.0000       0.           4.8647   
   21.80000n      5.0000       5.0000       0.           4.8647   
   22.00000n      5.0000       5.0000       0.           4.8647   
   22.20000n      5.0000       5.0000       1.0000       5.4342   
   22.40000n      5.0000       5.0000       2.0000       5.3343   
   22.60000n      5.0000       5.0000       3.0000       5.4389   
   22.80000n      5.0000       5.0000       4.0000       5.4388   
   23.00000n      5.0000       5.0000       5.0000       5.4027   
   23.20000n      5.0000       5.0000       5.0000       5.3246   
   23.40000n      5.0000       5.0000       5.0000       5.3093   
   23.60000n      5.0000       5.0000       5.0000       5.2988   
   23.80000n      5.0000       5.0000       5.0000       5.2917   
   24.00000n      5.0000       5.0000       5.0000       5.2863   
   24.20000n      5.0000       5.0000       5.0000       5.2809   
   24.40000n      5.0000       5.0000       5.0000       5.2765   
   24.60000n      5.0000       5.0000       5.0000       5.2740   
   24.80000n      5.0000       5.0000       5.0000       5.2714   
   25.00000n      5.0000       5.0000       5.0000       5.2689   
   25.20000n      5.0000       5.0000       5.0000       5.2664   
   25.40000n      5.0000       5.0000       5.0000       5.2639   
   25.60000n      5.0000       5.0000       5.0000       5.2614   
   25.80000n      5.0000       5.0000       5.0000       5.2589   
   26.00000n      5.0000       5.0000       5.0000       5.2575   
   26.20000n      5.0000       5.0000       5.0000       5.2561   
   26.40000n      5.0000       5.0000       5.0000       5.2546   
   26.60000n      5.0000       5.0000       5.0000       5.2532   
   26.80000n      5.0000       5.0000       5.0000       5.2517   
   27.00000n      5.0000       5.0000       5.0000       5.2503   
   27.20000n      5.0000       5.0000       5.0000       5.2489   
   27.40000n      5.0000       5.0000       5.0000       5.2474   
   27.60000n      5.0000       5.0000       5.0000       5.2460   
   27.80000n      5.0000       5.0000       5.0000       5.2446   
   28.00000n      5.0000       5.0000       5.0000       5.2431   
   28.20000n      5.0000       5.0000       5.0000       5.2420   
   28.40000n      5.0000       5.0000       5.0000       5.2413   
   28.60000n      5.0000       5.0000       5.0000       5.2406   
   28.80000n      5.0000       5.0000       5.0000       5.2398   
   29.00000n      5.0000       5.0000       5.0000       5.2391   
   29.20000n      5.0000       5.0000       5.0000       5.2384   
   29.40000n      5.0000       5.0000       5.0000       5.2376   
   29.60000n      5.0000       5.0000       5.0000       5.2369   
   29.80000n      5.0000       5.0000       5.0000       5.2362   
   30.00000n      5.0000       5.0000       5.0000       5.2354   
   30.20000n      5.0000       5.0000       5.0000       5.2347   
   30.40000n      5.0000       5.0000       5.0000       5.2340   
   30.60000n      5.0000       5.0000       5.0000       5.2332   
   30.80000n      5.0000       5.0000       5.0000       5.2325   
   31.00000n      5.0000       5.0000       5.0000       5.2318   
   31.20000n      5.0000       5.0000       5.0000       5.2310   
   31.40000n      5.0000       5.0000       5.0000       5.2303   
   31.60000n      5.0000       5.0000       5.0000       5.2296   
   31.80000n      5.0000       5.0000       5.0000       5.2288   
   32.00000n      5.0000       5.0000       5.0000       5.2282   
   32.20000n      5.0000       5.0000       5.0000       5.2278   
   32.40000n      5.0000       5.0000       5.0000       5.2273   
   32.60000n      5.0000       5.0000       5.0000       5.2268   
   32.80000n      5.0000       5.0000       5.0000       5.2264   
   33.00000n      5.0000       5.0000       5.0000       5.2259   
   33.20000n      5.0000       5.0000       4.0000       4.5527   
   33.40000n      5.0000       5.0000       3.0000       3.8368   
   33.60000n      5.0000       5.0000       2.0000       3.6818   
   33.80000n      5.0000       5.0000       1.0000       4.0748   
   34.00000n      5.0000       5.0000       0.           4.7403   
   34.20000n      5.0000       5.0000       0.           4.8355   
   34.40000n      5.0000       5.0000       0.           4.8530   
   34.60000n      5.0000       5.0000       0.           4.8571   
   34.80000n      5.0000       5.0000       0.           4.8590   
   35.00000n      5.0000       5.0000       0.           4.8602   
   35.20000n      5.0000       5.0000       0.           4.8614   
   35.40000n      5.0000       5.0000       0.           4.8615   
   35.60000n      5.0000       5.0000       0.           4.8617   
   35.80000n      5.0000       5.0000       0.           4.8618   
   36.00000n      5.0000       5.0000       0.           4.8620   
   36.20000n      5.0000       5.0000       0.           4.8621   
   36.40000n      5.0000       5.0000       0.           4.8624   
   36.60000n      5.0000       5.0000       0.           4.8626   
   36.80000n      5.0000       5.0000       0.           4.8628   
   37.00000n      5.0000       5.0000       0.           4.8630   
   37.20000n      5.0000       5.0000       0.           4.8632   
   37.40000n      5.0000       5.0000       0.           4.8635   
   37.60000n      5.0000       5.0000       0.           4.8637   
   37.80000n      5.0000       5.0000       0.           4.8639   
   38.00000n      5.0000       5.0000       0.           4.8641   
   38.20000n      5.0000       5.0000       0.           4.8643   
   38.40000n      5.0000       5.0000       0.           4.8646   
   38.60000n      5.0000       5.0000       0.           4.8648   
   38.80000n      5.0000       5.0000       0.           4.8650   
   39.00000n      5.0000       5.0000       0.           4.8652   
   39.20000n      5.0000       5.0000       0.           4.8654   
   39.40000n      5.0000       5.0000       0.           4.8656   
   39.60000n      5.0000       5.0000       0.           4.8656   
   39.80000n      5.0000       5.0000       0.           4.8656   
   40.00000n      5.0000       5.0000       0.           4.8656   
   40.20000n      5.0000       5.0000       0.           4.8656   
   40.40000n      5.0000       5.0000       0.           4.8656   
   40.60000n      5.0000       5.0000       0.           4.8656   
   40.80000n      5.0000       5.0000       0.           4.8656   
   41.00000n      5.0000       5.0000       0.           4.8656   
   41.20000n      5.0000       5.0000       0.           4.8656   
   41.40000n      5.0000       5.0000       0.           4.8655   
   41.60000n      5.0000       5.0000       0.           4.8655   
   41.80000n      5.0000       5.0000       0.           4.8655   
   42.00000n      5.0000       5.0000       0.           4.8655   
   42.20000n      5.0000       5.0000       1.0000       5.4292   
   42.40000n      5.0000       5.0000       2.0000       5.3566   
   42.60000n      5.0000       5.0000       3.0000       5.4369   
   42.80000n      5.0000       5.0000       4.0000       5.4372   
   43.00000n      5.0000       5.0000       5.0000       5.4088   
   43.20000n      5.0000       5.0000       5.0000       5.3250   
   43.40000n      5.0000       5.0000       5.0000       5.3085   
   43.60000n      5.0000       5.0000       5.0000       5.2978   
   43.80000n      5.0000       5.0000       5.0000       5.2918   
   44.00000n      5.0000       5.0000       5.0000       5.2858   
   44.20000n      5.0000       5.0000       5.0000       5.2800   
   44.40000n      5.0000       5.0000       5.0000       5.2768   
   44.60000n      5.0000       5.0000       5.0000       5.2736   
   44.80000n      5.0000       5.0000       5.0000       5.2704   
   45.00000n      5.0000       5.0000       5.0000       5.2672   
   45.20000n      5.0000       5.0000       5.0000       5.2640   
   45.40000n      5.0000       5.0000       5.0000       5.2618   
   45.60000n      5.0000       5.0000       5.0000       5.2603   
   45.80000n      5.0000       5.0000       5.0000       5.2588   
   46.00000n      5.0000       5.0000       5.0000       5.2573   
   46.20000n      5.0000       5.0000       5.0000       5.2558   
   46.40000n      5.0000       5.0000       5.0000       5.2543   
   46.60000n      5.0000       5.0000       5.0000       5.2527   
   46.80000n      5.0000       5.0000       5.0000       5.2512   
   47.00000n      5.0000       5.0000       5.0000       5.2497   
   47.20000n      5.0000       5.0000       5.0000       5.2482   
   47.40000n      5.0000       5.0000       5.0000       5.2467   
   47.60000n      5.0000       5.0000       5.0000       5.2459   
   47.80000n      5.0000       5.0000       5.0000       5.2451   
   48.00000n      5.0000       5.0000       5.0000       5.2443   
   48.20000n      5.0000       5.0000       5.0000       5.2435   
   48.40000n      5.0000       5.0000       5.0000       5.2427   
   48.60000n      5.0000       5.0000       5.0000       5.2419   
   48.80000n      5.0000       5.0000       5.0000       5.2411   
   49.00000n      5.0000       5.0000       5.0000       5.2403   
   49.20000n      5.0000       5.0000       5.0000       5.2395   
   49.40000n      5.0000       5.0000       5.0000       5.2387   
   49.60000n      5.0000       5.0000       5.0000       5.2379   
   49.80000n      5.0000       5.0000       5.0000       5.2371   
   50.00000n      5.0000       5.0000       5.0000       5.2363   
   50.20000n      5.0000       5.0000       5.0000       5.2355   
   50.40000n      5.0000       5.0000       5.0000       5.2347   
   50.60000n      5.0000       5.0000       5.0000       5.2339   
   50.80000n      5.0000       5.0000       5.0000       5.2331   
   51.00000n      5.0000       5.0000       5.0000       5.2323   
   51.20000n      5.0000       5.0000       5.0000       5.2317   
   51.40000n      5.0000       5.0000       5.0000       5.2311   
   51.60000n      5.0000       5.0000       5.0000       5.2306   
   51.80000n      5.0000       5.0000       5.0000       5.2300   
   52.00000n      5.0000       5.0000       5.0000       5.2295   
   52.20000n      5.0000       5.0000       5.0000       5.2290   
   52.40000n      5.0000       5.0000       5.0000       5.2284   
   52.60000n      5.0000       5.0000       5.0000       5.2279   
   52.80000n      5.0000       5.0000       5.0000       5.2273   
   53.00000n      5.0000       5.0000       5.0000       5.2268   
   53.20000n      5.0000       5.0000       4.0000       4.5558   
   53.40000n      5.0000       5.0000       3.0000       3.7869   
   53.60000n      5.0000       5.0000       2.0000       3.5771   
   53.80000n      5.0000       5.0000       1.0000       4.1683   
   54.00000n      5.0000       5.0000      33.0846f      4.6928   
   54.20000n      5.0000       5.0000       0.           4.8342   
   54.40000n      5.0000       5.0000       0.           4.8524   
   54.60000n      5.0000       5.0000       0.           4.8562   
   54.80000n      5.0000       5.0000       0.           4.8588   
   55.00000n      5.0000       5.0000       0.           4.8599   
   55.20000n      5.0000       5.0000       0.           4.8610   
   55.40000n      5.0000       5.0000       0.           4.8617   
   55.60000n      5.0000       5.0000       0.           4.8618   
   55.80000n      5.0000       5.0000       0.           4.8619   
   56.00000n      5.0000       5.0000       0.           4.8620   
   56.20000n      5.0000       5.0000       0.           4.8621   
   56.40000n      5.0000       5.0000       0.           4.8622   
   56.60000n      5.0000       5.0000       0.           4.8623   
   56.80000n      5.0000       5.0000       0.           4.8624   
   57.00000n      5.0000       5.0000       0.           4.8626   
   57.20000n      5.0000       5.0000       0.           4.8627   
   57.40000n      5.0000       5.0000       0.           4.8629   
   57.60000n      5.0000       5.0000       0.           4.8631   
   57.80000n      5.0000       5.0000       0.           4.8633   
   58.00000n      5.0000       5.0000       0.           4.8635   
   58.20000n      5.0000       5.0000       0.           4.8636   
   58.40000n      5.0000       5.0000       0.           4.8638   
   58.60000n      5.0000       5.0000       0.           4.8640   
   58.80000n      5.0000       5.0000       0.           4.8642   
   59.00000n      5.0000       5.0000       0.           4.8644   
   59.20000n      5.0000       5.0000       0.           4.8645   
   59.40000n      5.0000       5.0000       0.           4.8647   
   59.60000n      5.0000       5.0000       0.           4.8649   
   59.80000n      5.0000       5.0000       0.           4.8651   
   60.00000n      5.0000       5.0000       0.           4.8652   
   60.20000n      5.0000       5.0000       0.           4.8652   
   60.40000n      5.0000       5.0000       0.           4.8652   
   60.60000n      5.0000       5.0000       0.           4.8651   
   60.80000n      5.0000       5.0000       0.           4.8651   
   61.00000n      5.0000       5.0000       0.           4.8651   
   61.20000n      5.0000       5.0000       0.           4.8651   
   61.40000n      5.0000       5.0000       0.           4.8651   
   61.60000n      5.0000       5.0000       0.           4.8651   
   61.80000n      5.0000       5.0000       0.           4.8651   
   62.00000n      5.0000       5.0000       0.           4.8651   
   62.20000n      5.0000       5.0000       1.0000       5.4342   
   62.40000n      5.0000       5.0000       2.0000       5.3345   
   62.60000n      5.0000       5.0000       3.0000       5.4388   
   62.80000n      5.0000       5.0000       4.0000       5.4387   
   63.00000n      5.0000       5.0000       5.0000       5.4027   
   63.20000n      5.0000       5.0000       5.0000       5.3246   
   63.40000n      5.0000       5.0000       5.0000       5.3093   
   63.60000n      5.0000       5.0000       5.0000       5.2988   
   63.80000n      5.0000       5.0000       5.0000       5.2917   
   64.00000n      5.0000       5.0000       5.0000       5.2863   
   64.20000n      5.0000       5.0000       5.0000       5.2809   
   64.40000n      5.0000       5.0000       5.0000       5.2765   
   64.60000n      5.0000       5.0000       5.0000       5.2740   
   64.80000n      5.0000       5.0000       5.0000       5.2714   
   65.00000n      5.0000       5.0000       5.0000       5.2689   
   65.20000n      5.0000       5.0000       5.0000       5.2664   
   65.40000n      5.0000       5.0000       5.0000       5.2639   
   65.60000n      5.0000       5.0000       5.0000       5.2614   
   65.80000n      5.0000       5.0000       5.0000       5.2589   
   66.00000n      5.0000       5.0000       5.0000       5.2575   
   66.20000n      5.0000       5.0000       5.0000       5.2561   
   66.40000n      5.0000       5.0000       5.0000       5.2546   
   66.60000n      5.0000       5.0000       5.0000       5.2532   
   66.80000n      5.0000       5.0000       5.0000       5.2517   
   67.00000n      5.0000       5.0000       5.0000       5.2503   
   67.20000n      5.0000       5.0000       5.0000       5.2489   
   67.40000n      5.0000       5.0000       5.0000       5.2474   
   67.60000n      5.0000       5.0000       5.0000       5.2460   
   67.80000n      5.0000       5.0000       5.0000       5.2445   
   68.00000n      5.0000       5.0000       5.0000       5.2431   
   68.20000n      5.0000       5.0000       5.0000       5.2420   
   68.40000n      5.0000       5.0000       5.0000       5.2413   
   68.60000n      5.0000       5.0000       5.0000       5.2406   
   68.80000n      5.0000       5.0000       5.0000       5.2398   
   69.00000n      5.0000       5.0000       5.0000       5.2391   
   69.20000n      5.0000       5.0000       5.0000       5.2384   
   69.40000n      5.0000       5.0000       5.0000       5.2376   
   69.60000n      5.0000       5.0000       5.0000       5.2369   
   69.80000n      5.0000       5.0000       5.0000       5.2362   
   70.00000n      5.0000       5.0000       5.0000       5.2354   
   70.20000n      5.0000       5.0000       5.0000       5.2347   
   70.40000n      5.0000       5.0000       5.0000       5.2340   
   70.60000n      5.0000       5.0000       5.0000       5.2332   
   70.80000n      5.0000       5.0000       5.0000       5.2325   
   71.00000n      5.0000       5.0000       5.0000       5.2318   
   71.20000n      5.0000       5.0000       5.0000       5.2310   
   71.40000n      5.0000       5.0000       5.0000       5.2303   
   71.60000n      5.0000       5.0000       5.0000       5.2295   
   71.80000n      5.0000       5.0000       5.0000       5.2288   
   72.00000n      5.0000       5.0000       5.0000       5.2282   
   72.20000n      5.0000       5.0000       5.0000       5.2278   
   72.40000n      5.0000       5.0000       5.0000       5.2273   
   72.60000n      5.0000       5.0000       5.0000       5.2268   
   72.80000n      5.0000       5.0000       5.0000       5.2264   
   73.00000n      5.0000       5.0000       5.0000       5.2259   
   73.20000n      5.0000       5.0000       4.0000       4.5527   
   73.40000n      5.0000       5.0000       3.0000       3.8343   
   73.60000n      5.0000       5.0000       2.0000       3.6808   
   73.80000n      5.0000       5.0000       1.0000       4.0765   
   74.00000n      5.0000       5.0000       0.           4.7391   
   74.20000n      5.0000       5.0000       0.           4.8354   
   74.40000n      5.0000       5.0000       0.           4.8530   
   74.60000n      5.0000       5.0000       0.           4.8571   
   74.80000n      5.0000       5.0000       0.           4.8590   
   75.00000n      5.0000       5.0000       0.           4.8602   
   75.20000n      5.0000       5.0000       0.           4.8614   
   75.40000n      5.0000       5.0000       0.           4.8615   
   75.60000n      5.0000       5.0000       0.           4.8617   
   75.80000n      5.0000       5.0000       0.           4.8618   
   76.00000n      5.0000       5.0000       0.           4.8620   
   76.20000n      5.0000       5.0000       0.           4.8622   
   76.40000n      5.0000       5.0000       0.           4.8624   
   76.60000n      5.0000       5.0000       0.           4.8626   
   76.80000n      5.0000       5.0000       0.           4.8628   
   77.00000n      5.0000       5.0000       0.           4.8630   
   77.20000n      5.0000       5.0000       0.           4.8633   
   77.40000n      5.0000       5.0000       0.           4.8635   
   77.60000n      5.0000       5.0000       0.           4.8637   
   77.80000n      5.0000       5.0000       0.           4.8639   
   78.00000n      5.0000       5.0000       0.           4.8641   
   78.20000n      5.0000       5.0000       0.           4.8643   
   78.40000n      5.0000       5.0000       0.           4.8646   
   78.60000n      5.0000       5.0000       0.           4.8648   
   78.80000n      5.0000       5.0000       0.           4.8650   
   79.00000n      5.0000       5.0000       0.           4.8652   
   79.20000n      5.0000       5.0000       0.           4.8654   
   79.40000n      5.0000       5.0000       0.           4.8656   
   79.60000n      5.0000       5.0000       0.           4.8656   
   79.80000n      5.0000       5.0000       0.           4.8656   
   80.00000n      5.0000       5.0000       0.           4.8656   
   80.20000n      5.0000       5.0000       0.           4.8656   
   80.40000n      5.0000       5.0000       0.           4.8656   
   80.60000n      5.0000       5.0000       0.           4.8656   
   80.80000n      5.0000       5.0000       0.           4.8656   
   81.00000n      5.0000       5.0000       0.           4.8656   
   81.20000n      5.0000       5.0000       0.           4.8656   
   81.40000n      5.0000       5.0000       0.           4.8656   
   81.60000n      5.0000       5.0000       0.           4.8656   
   81.80000n      5.0000       5.0000       0.           4.8656   
   82.00000n      5.0000       5.0000       0.           4.8656   
   82.20000n      5.0000       5.0000       1.0000       5.4290   
   82.40000n      5.0000       5.0000       2.0000       5.3566   
   82.60000n      5.0000       5.0000       3.0000       5.4368   
   82.80000n      5.0000       5.0000       4.0000       5.4372   
   83.00000n      5.0000       5.0000       5.0000       5.4089   
   83.20000n      5.0000       5.0000       5.0000       5.3250   
   83.40000n      5.0000       5.0000       5.0000       5.3085   
   83.60000n      5.0000       5.0000       5.0000       5.2979   
   83.80000n      5.0000       5.0000       5.0000       5.2918   
   84.00000n      5.0000       5.0000       5.0000       5.2858   
   84.20000n      5.0000       5.0000       5.0000       5.2801   
   84.40000n      5.0000       5.0000       5.0000       5.2768   
   84.60000n      5.0000       5.0000       5.0000       5.2736   
   84.80000n      5.0000       5.0000       5.0000       5.2704   
   85.00000n      5.0000       5.0000       5.0000       5.2672   
   85.20000n      5.0000       5.0000       5.0000       5.2640   
   85.40000n      5.0000       5.0000       5.0000       5.2619   
   85.60000n      5.0000       5.0000       5.0000       5.2603   
   85.80000n      5.0000       5.0000       5.0000       5.2588   
   86.00000n      5.0000       5.0000       5.0000       5.2573   
   86.20000n      5.0000       5.0000       5.0000       5.2558   
   86.40000n      5.0000       5.0000       5.0000       5.2543   
   86.60000n      5.0000       5.0000       5.0000       5.2527   
   86.80000n      5.0000       5.0000       5.0000       5.2512   
   87.00000n      5.0000       5.0000       5.0000       5.2497   
   87.20000n      5.0000       5.0000       5.0000       5.2482   
   87.40000n      5.0000       5.0000       5.0000       5.2467   
   87.60000n      5.0000       5.0000       5.0000       5.2459   
   87.80000n      5.0000       5.0000       5.0000       5.2451   
   88.00000n      5.0000       5.0000       5.0000       5.2443   
   88.20000n      5.0000       5.0000       5.0000       5.2435   
   88.40000n      5.0000       5.0000       5.0000       5.2427   
   88.60000n      5.0000       5.0000       5.0000       5.2419   
   88.80000n      5.0000       5.0000       5.0000       5.2411   
   89.00000n      5.0000       5.0000       5.0000       5.2403   
   89.20000n      5.0000       5.0000       5.0000       5.2395   
   89.40000n      5.0000       5.0000       5.0000       5.2387   
   89.60000n      5.0000       5.0000       5.0000       5.2379   
   89.80000n      5.0000       5.0000       5.0000       5.2371   
   90.00000n      5.0000       5.0000       5.0000       5.2363   
   90.20000n      5.0000       5.0000       5.0000       5.2355   
   90.40000n      5.0000       5.0000       5.0000       5.2347   
   90.60000n      5.0000       5.0000       5.0000       5.2339   
   90.80000n      5.0000       5.0000       5.0000       5.2331   
   91.00000n      5.0000       5.0000       5.0000       5.2323   
   91.20000n      5.0000       5.0000       5.0000       5.2317   
   91.40000n      5.0000       5.0000       5.0000       5.2312   
   91.60000n      5.0000       5.0000       5.0000       5.2306   
   91.80000n      5.0000       5.0000       5.0000       5.2301   
   92.00000n      5.0000       5.0000       5.0000       5.2295   
   92.20000n      5.0000       5.0000       5.0000       5.2290   
   92.40000n      5.0000       5.0000       5.0000       5.2284   
   92.60000n      5.0000       5.0000       5.0000       5.2279   
   92.80000n      5.0000       5.0000       5.0000       5.2273   
   93.00000n      5.0000       5.0000       5.0000       5.2268   
   93.20000n      5.0000       5.0000       4.0000       4.5557   
   93.40000n      5.0000       5.0000       3.0000       3.7878   
   93.60000n      5.0000       5.0000       2.0000       3.5693   
   93.80000n      5.0000       5.0000       1.0000       4.1683   
   94.00000n      5.0000       5.0000     -66.1693f      4.6935   
   94.20000n      5.0000       5.0000       0.           4.8353   
   94.40000n      5.0000       5.0000       0.           4.8525   
   94.60000n      5.0000       5.0000       0.           4.8562   
   94.80000n      5.0000       5.0000       0.           4.8586   
   95.00000n      5.0000       5.0000       0.           4.8599   
   95.20000n      5.0000       5.0000       0.           4.8612   
   95.40000n      5.0000       5.0000       0.           4.8617   
   95.60000n      5.0000       5.0000       0.           4.8621   
   95.80000n      5.0000       5.0000       0.           4.8624   
   96.00000n      5.0000       5.0000       0.           4.8628   
   96.20000n      5.0000       5.0000       0.           4.8632   
   96.40000n      5.0000       5.0000       0.           4.8635   
   96.60000n      5.0000       5.0000       0.           4.8639   
   96.80000n      5.0000       5.0000       0.           4.8642   
   97.00000n      5.0000       5.0000       0.           4.8642   
   97.20000n      5.0000       5.0000       0.           4.8642   
   97.40000n      5.0000       5.0000       0.           4.8642   
   97.60000n      5.0000       5.0000       0.           4.8642   
   97.80000n      5.0000       5.0000       0.           4.8642   
   98.00000n      5.0000       5.0000       0.           4.8642   
   98.20000n      5.0000       5.0000       0.           4.8642   
   98.40000n      5.0000       5.0000       0.           4.8642   
   98.60000n      5.0000       5.0000       0.           4.8643   
   98.80000n      5.0000       5.0000       0.           4.8643   
   99.00000n      5.0000       5.0000       0.           4.8643   
   99.20000n      5.0000       5.0000       0.           4.8643   
   99.40000n      5.0000       5.0000       0.           4.8643   
   99.60000n      5.0000       5.0000       0.           4.8643   
   99.80000n      5.0000       5.0000       0.           4.8643   
  100.00000n      5.0000       5.0000       0.           4.8643   
  100.20000n      5.0000       5.0000       0.           4.8643   
  100.40000n      5.0000       5.0000       0.           4.8643   
  100.60000n      5.0000       5.0000       0.           4.8643   
  100.80000n      5.0000       5.0000       0.           4.8643   
  101.00000n      5.0000       5.0000       0.           4.8644   
  101.20000n      5.0000       5.0000       0.           4.8644   
  101.40000n      5.0000       5.0000       0.           4.8644   
  101.60000n      5.0000       5.0000       0.           4.8644   
  101.80000n      5.0000       5.0000       0.           4.8644   
  102.00000n      5.0000       5.0000       0.           4.8644   
  102.20000n      5.0000       5.0000       1.0000       5.4302   
  102.40000n      5.0000       5.0000       2.0000       5.3559   
  102.60000n      5.0000       5.0000       3.0000       5.4369   
  102.80000n      5.0000       5.0000       4.0000       5.4373   
  103.00000n      5.0000       5.0000       5.0000       5.4085   
  103.20000n      5.0000       5.0000       5.0000       5.3249   
  103.40000n      5.0000       5.0000       5.0000       5.3084   
  103.60000n      5.0000       5.0000       5.0000       5.2976   
  103.80000n      5.0000       5.0000       5.0000       5.2917   
  104.00000n      5.0000       5.0000       5.0000       5.2859   
  104.20000n      5.0000       5.0000       5.0000       5.2801   
  104.40000n      5.0000       5.0000       5.0000       5.2767   
  104.60000n      5.0000       5.0000       5.0000       5.2736   
  104.80000n      5.0000       5.0000       5.0000       5.2705   
  105.00000n      5.0000       5.0000       5.0000       5.2674   
  105.20000n      5.0000       5.0000       5.0000       5.2643   
  105.40000n      5.0000       5.0000       5.0000       5.2615   
  105.60000n      5.0000       5.0000       5.0000       5.2601   
  105.80000n      5.0000       5.0000       5.0000       5.2586   
  106.00000n      5.0000       5.0000       5.0000       5.2571   
  106.20000n      5.0000       5.0000       5.0000       5.2557   
  106.40000n      5.0000       5.0000       5.0000       5.2542   
  106.60000n      5.0000       5.0000       5.0000       5.2527   
  106.80000n      5.0000       5.0000       5.0000       5.2513   
  107.00000n      5.0000       5.0000       5.0000       5.2498   
  107.20000n      5.0000       5.0000       5.0000       5.2484   
  107.40000n      5.0000       5.0000       5.0000       5.2469   
  107.60000n      5.0000       5.0000       5.0000       5.2457   
  107.80000n      5.0000       5.0000       5.0000       5.2449   
  108.00000n      5.0000       5.0000       5.0000       5.2441   
  108.20000n      5.0000       5.0000       5.0000       5.2433   
  108.40000n      5.0000       5.0000       5.0000       5.2426   
  108.60000n      5.0000       5.0000       5.0000       5.2418   
  108.80000n      5.0000       5.0000       5.0000       5.2410   
  109.00000n      5.0000       5.0000       5.0000       5.2402   
  109.20000n      5.0000       5.0000       5.0000       5.2394   
  109.40000n      5.0000       5.0000       5.0000       5.2387   
  109.60000n      5.0000       5.0000       5.0000       5.2379   
  109.80000n      5.0000       5.0000       5.0000       5.2371   
  110.00000n      5.0000       5.0000       5.0000       5.2363   
  110.20000n      5.0000       5.0000       5.0000       5.2355   
  110.40000n      5.0000       5.0000       5.0000       5.2347   
  110.60000n      5.0000       5.0000       5.0000       5.2340   
  110.80000n      5.0000       5.0000       5.0000       5.2332   
  111.00000n      5.0000       5.0000       5.0000       5.2324   
  111.20000n      5.0000       5.0000       5.0000       5.2316   
  111.40000n      5.0000       5.0000       5.0000       5.2310   
  111.60000n      5.0000       5.0000       5.0000       5.2305   
  111.80000n      5.0000       5.0000       5.0000       5.2299   
  112.00000n      5.0000       5.0000       5.0000       5.2294   
  112.20000n      5.0000       5.0000       5.0000       5.2289   
  112.40000n      5.0000       5.0000       5.0000       5.2284   
  112.60000n      5.0000       5.0000       5.0000       5.2278   
  112.80000n      5.0000       5.0000       5.0000       5.2273   
  113.00000n      5.0000       5.0000       5.0000       5.2268   
  113.20000n      5.0000       5.0000       4.0000       4.5560   
  113.40000n      5.0000       5.0000       3.0000       3.7864   
  113.60000n      5.0000       5.0000       2.0000       3.6006   
  113.80000n      5.0000       5.0000       1.0000       4.1624   
  114.00000n      5.0000       5.0000     -66.1970f      4.6940   
  114.20000n      5.0000       5.0000       0.           4.8327   
  114.40000n      5.0000       5.0000       0.           4.8523   
  114.60000n      5.0000       5.0000       0.           4.8564   
  114.80000n      5.0000       5.0000       0.           4.8586   
  115.00000n      5.0000       5.0000       0.           4.8598   
  115.20000n      5.0000       5.0000       0.           4.8602   
  115.40000n      5.0000       5.0000       0.           4.8606   
  115.60000n      5.0000       5.0000       0.           4.8610   
  115.80000n      5.0000       5.0000       0.           4.8614   
  116.00000n      5.0000       5.0000       0.           4.8617   
  116.20000n      5.0000       5.0000       0.           4.8621   
  116.40000n      5.0000       5.0000       0.           4.8625   
  116.60000n      5.0000       5.0000       0.           4.8629   
  116.80000n      5.0000       5.0000       0.           4.8633   
  117.00000n      5.0000       5.0000       0.           4.8637   
  117.20000n      5.0000       5.0000       0.           4.8641   
  117.40000n      5.0000       5.0000       0.           4.8644   
  117.60000n      5.0000       5.0000       0.           4.8648   
  117.80000n      5.0000       5.0000       0.           4.8649   
  118.00000n      5.0000       5.0000       0.           4.8650   
  118.20000n      5.0000       5.0000       0.           4.8650   
  118.40000n      5.0000       5.0000       0.           4.8650   
  118.60000n      5.0000       5.0000       0.           4.8651   
  118.80000n      5.0000       5.0000       0.           4.8651   
  119.00000n      5.0000       5.0000       0.           4.8651   
  119.20000n      5.0000       5.0000       0.           4.8651   
  119.40000n      5.0000       5.0000       0.           4.8652   
  119.60000n      5.0000       5.0000       0.           4.8652   
  119.80000n      5.0000       5.0000       0.           4.8652   
  120.00000n      5.0000       5.0000       0.           4.8652   
  120.20000n      5.0000       5.0000       0.           4.8653   
  120.40000n      5.0000       5.0000       0.           4.8653   
  120.60000n      5.0000       5.0000       0.           4.8653   
  120.80000n      5.0000       5.0000       0.           4.8653   
  121.00000n      5.0000       5.0000       0.           4.8653   
  121.20000n      5.0000       5.0000       0.           4.8653   
  121.40000n      5.0000       5.0000       0.           4.8653   
  121.60000n      5.0000       5.0000       0.           4.8653   
  121.80000n      5.0000       5.0000       0.           4.8653   
  122.00000n      5.0000       5.0000       0.           4.8653   
  122.20000n      5.0000       5.0000       1.0000       5.4341   
  122.40000n      5.0000       5.0000       2.0000       5.3597   
  122.60000n      5.0000       5.0000       3.0000       5.4365   
  122.80000n      5.0000       5.0000       4.0000       5.4379   
  123.00000n      5.0000       5.0000       5.0000       5.4135   
  123.20000n      5.0000       5.0000       5.0000       5.3261   
  123.40000n      5.0000       5.0000       5.0000       5.3102   
  123.60000n      5.0000       5.0000       5.0000       5.2992   
  123.80000n      5.0000       5.0000       5.0000       5.2923   
  124.00000n      5.0000       5.0000       5.0000       5.2855   
  124.20000n      5.0000       5.0000       5.0000       5.2812   
  124.40000n      5.0000       5.0000       5.0000       5.2780   
  124.60000n      5.0000       5.0000       5.0000       5.2748   
  124.80000n      5.0000       5.0000       5.0000       5.2716   
  125.00000n      5.0000       5.0000       5.0000       5.2684   
  125.20000n      5.0000       5.0000       5.0000       5.2652   
  125.40000n      5.0000       5.0000       5.0000       5.2628   
  125.60000n      5.0000       5.0000       5.0000       5.2611   
  125.80000n      5.0000       5.0000       5.0000       5.2594   
  126.00000n      5.0000       5.0000       5.0000       5.2577   
  126.20000n      5.0000       5.0000       5.0000       5.2560   
  126.40000n      5.0000       5.0000       5.0000       5.2543   
  126.60000n      5.0000       5.0000       5.0000       5.2526   
  126.80000n      5.0000       5.0000       5.0000       5.2508   
  127.00000n      5.0000       5.0000       5.0000       5.2491   
  127.20000n      5.0000       5.0000       5.0000       5.2474   
  127.40000n      5.0000       5.0000       5.0000       5.2463   
  127.60000n      5.0000       5.0000       5.0000       5.2455   
  127.80000n      5.0000       5.0000       5.0000       5.2446   
  128.00000n      5.0000       5.0000       5.0000       5.2437   
  128.20000n      5.0000       5.0000       5.0000       5.2429   
  128.40000n      5.0000       5.0000       5.0000       5.2420   
  128.60000n      5.0000       5.0000       5.0000       5.2412   
  128.80000n      5.0000       5.0000       5.0000       5.2403   
  129.00000n      5.0000       5.0000       5.0000       5.2395   
  129.20000n      5.0000       5.0000       5.0000       5.2386   
  129.40000n      5.0000       5.0000       5.0000       5.2378   
  129.60000n      5.0000       5.0000       5.0000       5.2369   
  129.80000n      5.0000       5.0000       5.0000       5.2360   
  130.00000n      5.0000       5.0000       5.0000       5.2352   
  130.20000n      5.0000       5.0000       5.0000       5.2343   
  130.40000n      5.0000       5.0000       5.0000       5.2335   
  130.60000n      5.0000       5.0000       5.0000       5.2328   
  130.80000n      5.0000       5.0000       5.0000       5.2322   
  131.00000n      5.0000       5.0000       5.0000       5.2317   
  131.20000n      5.0000       5.0000       5.0000       5.2311   
  131.40000n      5.0000       5.0000       5.0000       5.2306   
  131.60000n      5.0000       5.0000       5.0000       5.2300   
  131.80000n      5.0000       5.0000       5.0000       5.2295   
  132.00000n      5.0000       5.0000       5.0000       5.2289   
  132.20000n      5.0000       5.0000       5.0000       5.2284   
  132.40000n      5.0000       5.0000       5.0000       5.2279   
  132.60000n      5.0000       5.0000       5.0000       5.2273   
  132.80000n      5.0000       5.0000       5.0000       5.2268   
  133.00000n      5.0000       5.0000       5.0000       5.2262   
  133.20000n      5.0000       5.0000       4.0000       4.5546   
  133.40000n      5.0000       5.0000       3.0000       3.7950   
  133.60000n      5.0000       5.0000       2.0000       3.0358   
  133.80000n      5.0000       5.0000       1.0000       4.0680   
  134.00000n      5.0000       5.0000    -132.3386f      4.6960   
  134.20000n      5.0000       5.0000       0.           4.8358   
  134.40000n      5.0000       5.0000       0.           4.8515   
  134.60000n      5.0000       5.0000       0.           4.8558   
  134.80000n      5.0000       5.0000       0.           4.8585   
  135.00000n      5.0000       5.0000       0.           4.8597   
  135.20000n      5.0000       5.0000       0.           4.8608   
  135.40000n      5.0000       5.0000       0.           4.8618   
  135.60000n      5.0000       5.0000       0.           4.8619   
  135.80000n      5.0000       5.0000       0.           4.8620   
  136.00000n      5.0000       5.0000       0.           4.8621   
  136.20000n      5.0000       5.0000       0.           4.8622   
  136.40000n      5.0000       5.0000       0.           4.8623   
  136.60000n      5.0000       5.0000       0.           4.8624   
  136.80000n      5.0000       5.0000       0.           4.8625   
  137.00000n      5.0000       5.0000       0.           4.8627   
  137.20000n      5.0000       5.0000       0.           4.8628   
  137.40000n      5.0000       5.0000       0.           4.8630   
  137.60000n      5.0000       5.0000       0.           4.8632   
  137.80000n      5.0000       5.0000       0.           4.8634   
  138.00000n      5.0000       5.0000       0.           4.8636   
  138.20000n      5.0000       5.0000       0.           4.8638   
  138.40000n      5.0000       5.0000       0.           4.8640   
  138.60000n      5.0000       5.0000       0.           4.8641   
  138.80000n      5.0000       5.0000       0.           4.8643   
  139.00000n      5.0000       5.0000       0.           4.8645   
  139.20000n      5.0000       5.0000       0.           4.8647   
  139.40000n      5.0000       5.0000       0.           4.8649   
  139.60000n      5.0000       5.0000       0.           4.8651   
  139.80000n      5.0000       5.0000       0.           4.8651   
  140.00000n      5.0000       5.0000       0.           4.8651   
  140.20000n      5.0000       5.0000       0.           4.8651   
  140.40000n      5.0000       5.0000       0.           4.8651   
  140.60000n      5.0000       5.0000       0.           4.8651   
  140.80000n      5.0000       5.0000       0.           4.8651   
  141.00000n      5.0000       5.0000       0.           4.8651   
  141.20000n      5.0000       5.0000       0.           4.8650   
  141.40000n      5.0000       5.0000       0.           4.8650   
  141.60000n      5.0000       5.0000       0.           4.8650   
  141.80000n      5.0000       5.0000       0.           4.8650   
  142.00000n      5.0000       5.0000       0.           4.8650   
  142.20000n      5.0000       5.0000       1.0000       5.4329   
  142.40000n      5.0000       5.0000       2.0000       5.3565   
  142.60000n      5.0000       5.0000       3.0000       5.4369   
  142.80000n      5.0000       5.0000       4.0000       5.4374   
  143.00000n      5.0000       5.0000       5.0000       5.4082   
  143.20000n      5.0000       5.0000       5.0000       5.3246   
  143.40000n      5.0000       5.0000       5.0000       5.3082   
  143.60000n      5.0000       5.0000       5.0000       5.2972   
  143.80000n      5.0000       5.0000       5.0000       5.2916   
  144.00000n      5.0000       5.0000       5.0000       5.2860   
  144.20000n      5.0000       5.0000       5.0000       5.2803   
  144.40000n      5.0000       5.0000       5.0000       5.2764   
  144.60000n      5.0000       5.0000       5.0000       5.2734   
  144.80000n      5.0000       5.0000       5.0000       5.2705   
  145.00000n      5.0000       5.0000       5.0000       5.2675   
  145.20000n      5.0000       5.0000       5.0000       5.2645   
  145.40000n      5.0000       5.0000       5.0000       5.2616   
  145.60000n      5.0000       5.0000       5.0000       5.2598   
  145.80000n      5.0000       5.0000       5.0000       5.2583   
  146.00000n      5.0000       5.0000       5.0000       5.2569   
  146.20000n      5.0000       5.0000       5.0000       5.2555   
  146.40000n      5.0000       5.0000       5.0000       5.2541   
  146.60000n      5.0000       5.0000       5.0000       5.2527   
  146.80000n      5.0000       5.0000       5.0000       5.2513   
  147.00000n      5.0000       5.0000       5.0000       5.2499   
  147.20000n      5.0000       5.0000       5.0000       5.2485   
  147.40000n      5.0000       5.0000       5.0000       5.2471   
  147.60000n      5.0000       5.0000       5.0000       5.2457   
  147.80000n      5.0000       5.0000       5.0000       5.2447   
  148.00000n      5.0000       5.0000       5.0000       5.2439   
  148.20000n      5.0000       5.0000       5.0000       5.2431   
  148.40000n      5.0000       5.0000       5.0000       5.2424   
  148.60000n      5.0000       5.0000       5.0000       5.2416   
  148.80000n      5.0000       5.0000       5.0000       5.2409   
  149.00000n      5.0000       5.0000       5.0000       5.2401   
  149.20000n      5.0000       5.0000       5.0000       5.2393   
  149.40000n      5.0000       5.0000       5.0000       5.2386   
  149.60000n      5.0000       5.0000       5.0000       5.2378   
  149.80000n      5.0000       5.0000       5.0000       5.2371   
  150.00000n      5.0000       5.0000       5.0000       5.2363   
  150.20000n      5.0000       5.0000       5.0000       5.2356   
  150.40000n      5.0000       5.0000       5.0000       5.2348   
  150.60000n      5.0000       5.0000       5.0000       5.2340   
  150.80000n      5.0000       5.0000       5.0000       5.2333   
  151.00000n      5.0000       5.0000       5.0000       5.2325   
  151.20000n      5.0000       5.0000       5.0000       5.2318   
  151.40000n      5.0000       5.0000       5.0000       5.2310   
  151.60000n      5.0000       5.0000       5.0000       5.2303   
  151.80000n      5.0000       5.0000       5.0000       5.2298   
  152.00000n      5.0000       5.0000       5.0000       5.2293   
  152.20000n      5.0000       5.0000       5.0000       5.2288   
  152.40000n      5.0000       5.0000       5.0000       5.2283   
  152.60000n      5.0000       5.0000       5.0000       5.2277   
  152.80000n      5.0000       5.0000       5.0000       5.2272   
  153.00000n      5.0000       5.0000       5.0000       5.2267   
  153.20000n      5.0000       5.0000       4.0000       4.5560   
  153.40000n      5.0000       5.0000       3.0000       3.8136   
  153.60000n      5.0000       5.0000       2.0000       3.2475   
  153.80000n      5.0000       5.0000       1.0000       4.0529   
  154.00000n      5.0000       5.0000    -132.3386f      4.6845   
  154.20000n      5.0000       5.0000       0.           4.8350   
  154.40000n      5.0000       5.0000       0.           4.8519   
  154.60000n      5.0000       5.0000       0.           4.8560   
  154.80000n      5.0000       5.0000       0.           4.8588   
  155.00000n      5.0000       5.0000       0.           4.8594   
  155.20000n      5.0000       5.0000       0.           4.8600   
  155.40000n      5.0000       5.0000       0.           4.8606   
  155.60000n      5.0000       5.0000       0.           4.8611   
  155.80000n      5.0000       5.0000       0.           4.8615   
  156.00000n      5.0000       5.0000       0.           4.8619   
  156.20000n      5.0000       5.0000       0.           4.8624   
  156.40000n      5.0000       5.0000       0.           4.8628   
  156.60000n      5.0000       5.0000       0.           4.8632   
  156.80000n      5.0000       5.0000       0.           4.8636   
  157.00000n      5.0000       5.0000       0.           4.8640   
  157.20000n      5.0000       5.0000       0.           4.8645   
  157.40000n      5.0000       5.0000       0.           4.8646   
  157.60000n      5.0000       5.0000       0.           4.8647   
  157.80000n      5.0000       5.0000       0.           4.8647   
  158.00000n      5.0000       5.0000       0.           4.8647   
  158.20000n      5.0000       5.0000       0.           4.8647   
  158.40000n      5.0000       5.0000       0.           4.8648   
  158.60000n      5.0000       5.0000       0.           4.8648   
  158.80000n      5.0000       5.0000       0.           4.8648   
  159.00000n      5.0000       5.0000       0.           4.8648   
  159.20000n      5.0000       5.0000       0.           4.8648   
  159.40000n      5.0000       5.0000       0.           4.8649   
  159.60000n      5.0000       5.0000       0.           4.8649   
  159.80000n      5.0000       5.0000       0.           4.8649   
  160.00000n      5.0000       5.0000       0.           4.8649   
  160.20000n      5.0000       5.0000       0.           4.8649   
  160.40000n      5.0000       5.0000       0.           4.8649   
  160.60000n      5.0000       5.0000       0.           4.8649   
  160.80000n      5.0000       5.0000       0.           4.8649   
  161.00000n      5.0000       5.0000       0.           4.8649   
  161.20000n      5.0000       5.0000       0.           4.8649   
  161.40000n      5.0000       5.0000       0.           4.8649   
  161.60000n      5.0000       5.0000       0.           4.8649   
  161.80000n      5.0000       5.0000       0.           4.8649   
  162.00000n      5.0000       5.0000       0.           4.8648   
  162.20000n      5.0000       5.0000       1.0000       5.4342   
  162.40000n      5.0000       5.0000       2.0000       5.3342   
  162.60000n      5.0000       5.0000       3.0000       5.4389   
  162.80000n      5.0000       5.0000       4.0000       5.4388   
  163.00000n      5.0000       5.0000       5.0000       5.4027   
  163.20000n      5.0000       5.0000       5.0000       5.3246   
  163.40000n      5.0000       5.0000       5.0000       5.3093   
  163.60000n      5.0000       5.0000       5.0000       5.2988   
  163.80000n      5.0000       5.0000       5.0000       5.2917   
  164.00000n      5.0000       5.0000       5.0000       5.2863   
  164.20000n      5.0000       5.0000       5.0000       5.2809   
  164.40000n      5.0000       5.0000       5.0000       5.2765   
  164.60000n      5.0000       5.0000       5.0000       5.2740   
  164.80000n      5.0000       5.0000       5.0000       5.2714   
  165.00000n      5.0000       5.0000       5.0000       5.2689   
  165.20000n      5.0000       5.0000       5.0000       5.2664   
  165.40000n      5.0000       5.0000       5.0000       5.2639   
  165.60000n      5.0000       5.0000       5.0000       5.2614   
  165.80000n      5.0000       5.0000       5.0000       5.2589   
  166.00000n      5.0000       5.0000       5.0000       5.2575   
  166.20000n      5.0000       5.0000       5.0000       5.2561   
  166.40000n      5.0000       5.0000       5.0000       5.2546   
  166.60000n      5.0000       5.0000       5.0000       5.2532   
  166.80000n      5.0000       5.0000       5.0000       5.2517   
  167.00000n      5.0000       5.0000       5.0000       5.2503   
  167.20000n      5.0000       5.0000       5.0000       5.2489   
  167.40000n      5.0000       5.0000       5.0000       5.2474   
  167.60000n      5.0000       5.0000       5.0000       5.2460   
  167.80000n      5.0000       5.0000       5.0000       5.2446   
  168.00000n      5.0000       5.0000       5.0000       5.2431   
  168.20000n      5.0000       5.0000       5.0000       5.2420   
  168.40000n      5.0000       5.0000       5.0000       5.2413   
  168.60000n      5.0000       5.0000       5.0000       5.2406   
  168.80000n      5.0000       5.0000       5.0000       5.2398   
  169.00000n      5.0000       5.0000       5.0000       5.2391   
  169.20000n      5.0000       5.0000       5.0000       5.2384   
  169.40000n      5.0000       5.0000       5.0000       5.2376   
  169.60000n      5.0000       5.0000       5.0000       5.2369   
  169.80000n      5.0000       5.0000       5.0000       5.2362   
  170.00000n      5.0000       5.0000       5.0000       5.2354   
  170.20000n      5.0000       5.0000       5.0000       5.2347   
  170.40000n      5.0000       5.0000       5.0000       5.2340   
  170.60000n      5.0000       5.0000       5.0000       5.2332   
  170.80000n      5.0000       5.0000       5.0000       5.2325   
  171.00000n      5.0000       5.0000       5.0000       5.2318   
  171.20000n      5.0000       5.0000       5.0000       5.2310   
  171.40000n      5.0000       5.0000       5.0000       5.2303   
  171.60000n      5.0000       5.0000       5.0000       5.2296   
  171.80000n      5.0000       5.0000       5.0000       5.2288   
  172.00000n      5.0000       5.0000       5.0000       5.2282   
  172.20000n      5.0000       5.0000       5.0000       5.2278   
  172.40000n      5.0000       5.0000       5.0000       5.2273   
  172.60000n      5.0000       5.0000       5.0000       5.2268   
  172.80000n      5.0000       5.0000       5.0000       5.2264   
  173.00000n      5.0000       5.0000       5.0000       5.2259   
  173.20000n      5.0000       5.0000       4.0000       4.5527   
  173.40000n      5.0000       5.0000       3.0000       3.8363   
  173.60000n      5.0000       5.0000       2.0000       3.6815   
  173.80000n      5.0000       5.0000       1.0000       4.0752   
  174.00000n      5.0000       5.0000    -132.3386f      4.7400   
  174.20000n      5.0000       5.0000       0.           4.8354   
  174.40000n      5.0000       5.0000       0.           4.8530   
  174.60000n      5.0000       5.0000       0.           4.8571   
  174.80000n      5.0000       5.0000       0.           4.8590   
  175.00000n      5.0000       5.0000       0.           4.8602   
  175.20000n      5.0000       5.0000       0.           4.8614   
  175.40000n      5.0000       5.0000       0.           4.8615   
  175.60000n      5.0000       5.0000       0.           4.8617   
  175.80000n      5.0000       5.0000       0.           4.8618   
  176.00000n      5.0000       5.0000       0.           4.8620   
  176.20000n      5.0000       5.0000       0.           4.8621   
  176.40000n      5.0000       5.0000       0.           4.8624   
  176.60000n      5.0000       5.0000       0.           4.8626   
  176.80000n      5.0000       5.0000       0.           4.8628   
  177.00000n      5.0000       5.0000       0.           4.8630   
  177.20000n      5.0000       5.0000       0.           4.8632   
  177.40000n      5.0000       5.0000       0.           4.8635   
  177.60000n      5.0000       5.0000       0.           4.8637   
  177.80000n      5.0000       5.0000       0.           4.8639   
  178.00000n      5.0000       5.0000       0.           4.8641   
  178.20000n      5.0000       5.0000       0.           4.8643   
  178.40000n      5.0000       5.0000       0.           4.8646   
  178.60000n      5.0000       5.0000       0.           4.8648   
  178.80000n      5.0000       5.0000       0.           4.8650   
  179.00000n      5.0000       5.0000       0.           4.8652   
  179.20000n      5.0000       5.0000       0.           4.8654   
  179.40000n      5.0000       5.0000       0.           4.8656   
  179.60000n      5.0000       5.0000       0.           4.8656   
  179.80000n      5.0000       5.0000       0.           4.8656   
  180.00000n      5.0000       5.0000       0.           4.8656   
  180.20000n      5.0000       5.0000       0.           4.8656   
  180.40000n      5.0000       5.0000       0.           4.8656   
  180.60000n      5.0000       5.0000       0.           4.8656   
  180.80000n      5.0000       5.0000       0.           4.8656   
  181.00000n      5.0000       5.0000       0.           4.8656   
  181.20000n      5.0000       5.0000       0.           4.8656   
  181.40000n      5.0000       5.0000       0.           4.8655   
  181.60000n      5.0000       5.0000       0.           4.8655   
  181.80000n      5.0000       5.0000       0.           4.8655   
  182.00000n      5.0000       5.0000       0.           4.8655   
  182.20000n      5.0000       5.0000       1.0000       5.4292   
  182.40000n      5.0000       5.0000       2.0000       5.3566   
  182.60000n      5.0000       5.0000       3.0000       5.4369   
  182.80000n      5.0000       5.0000       4.0000       5.4372   
  183.00000n      5.0000       5.0000       5.0000       5.4089   
  183.20000n      5.0000       5.0000       5.0000       5.3250   
  183.40000n      5.0000       5.0000       5.0000       5.3085   
  183.60000n      5.0000       5.0000       5.0000       5.2978   
  183.80000n      5.0000       5.0000       5.0000       5.2918   
  184.00000n      5.0000       5.0000       5.0000       5.2858   
  184.20000n      5.0000       5.0000       5.0000       5.2800   
  184.40000n      5.0000       5.0000       5.0000       5.2768   
  184.60000n      5.0000       5.0000       5.0000       5.2736   
  184.80000n      5.0000       5.0000       5.0000       5.2704   
  185.00000n      5.0000       5.0000       5.0000       5.2672   
  185.20000n      5.0000       5.0000       5.0000       5.2640   
  185.40000n      5.0000       5.0000       5.0000       5.2618   
  185.60000n      5.0000       5.0000       5.0000       5.2603   
  185.80000n      5.0000       5.0000       5.0000       5.2588   
  186.00000n      5.0000       5.0000       5.0000       5.2573   
  186.20000n      5.0000       5.0000       5.0000       5.2558   
  186.40000n      5.0000       5.0000       5.0000       5.2543   
  186.60000n      5.0000       5.0000       5.0000       5.2527   
  186.80000n      5.0000       5.0000       5.0000       5.2512   
  187.00000n      5.0000       5.0000       5.0000       5.2497   
  187.20000n      5.0000       5.0000       5.0000       5.2482   
  187.40000n      5.0000       5.0000       5.0000       5.2467   
  187.60000n      5.0000       5.0000       5.0000       5.2459   
  187.80000n      5.0000       5.0000       5.0000       5.2451   
  188.00000n      5.0000       5.0000       5.0000       5.2443   
  188.20000n      5.0000       5.0000       5.0000       5.2435   
  188.40000n      5.0000       5.0000       5.0000       5.2427   
  188.60000n      5.0000       5.0000       5.0000       5.2419   
  188.80000n      5.0000       5.0000       5.0000       5.2411   
  189.00000n      5.0000       5.0000       5.0000       5.2403   
  189.20000n      5.0000       5.0000       5.0000       5.2395   
  189.40000n      5.0000       5.0000       5.0000       5.2387   
  189.60000n      5.0000       5.0000       5.0000       5.2379   
  189.80000n      5.0000       5.0000       5.0000       5.2371   
  190.00000n      5.0000       5.0000       5.0000       5.2363   
  190.20000n      5.0000       5.0000       5.0000       5.2355   
  190.40000n      5.0000       5.0000       5.0000       5.2347   
  190.60000n      5.0000       5.0000       5.0000       5.2339   
  190.80000n      5.0000       5.0000       5.0000       5.2331   
  191.00000n      5.0000       5.0000       5.0000       5.2323   
  191.20000n      5.0000       5.0000       5.0000       5.2317   
  191.40000n      5.0000       5.0000       5.0000       5.2311   
  191.60000n      5.0000       5.0000       5.0000       5.2306   
  191.80000n      5.0000       5.0000       5.0000       5.2300   
[...]
   71.00000n     41.3803p  
   71.20000n     39.9129p  
   71.40000n     38.4456p  
   71.60000n     36.9782p  
   71.80000n     35.5108p  
   72.00000n     34.4918p  
   72.20000n     33.7586p  
   72.40000n     33.0254p  
   72.60000n     32.2922p  
   72.80000n     31.5591p  
   73.00000n     30.8259p  
   73.20000n     21.2248u  
   73.40000n     89.0492u  
   73.60000n    127.9009u  
   73.80000n    102.9915u  
   74.00000n     66.3455n  
   74.20000n      2.7738n  
   74.40000n    529.8891p  
   74.60000n    210.0277p  
   74.80000n    127.2730p  
   75.00000n     98.7591p  
   75.20000n     70.2452p  
   75.40000n     63.3281p  
   75.60000n     56.8028p  
   75.80000n     50.2775p  
   76.00000n     43.7523p  
   76.20000n     37.5281p  
   76.40000n     35.2088p  
   76.60000n     32.8895p  
   76.80000n     30.5701p  
   77.00000n     28.2508p  
   77.20000n     25.9314p  
   77.40000n     23.6121p  
   77.60000n     21.2928p  
   77.80000n     18.9734p  
   78.00000n     16.6541p  
   78.20000n     14.3348p  
   78.40000n     12.0154p  
   78.60000n      9.6961p  
   78.80000n      7.3767p  
   79.00000n      5.0574p  
   79.20000n      2.7381p  
   79.40000n      1.2595p  
   79.60000n      1.2460p  
   79.80000n      1.2324p  
   80.00000n      1.2188p  
   80.20000n      1.2052p  
   80.40000n      1.1916p  
   80.60000n      1.1780p  
   80.80000n      1.1644p  
   81.00000n      1.1508p  
   81.20000n      1.1372p  
   81.40000n      1.1236p  
   81.60000n      1.1101p  
   81.80000n      1.0965p  
   82.00000n      1.0829p  
   82.20000n     96.4151u  
   82.40000n    215.8415u  
   82.60000n     92.7738u  
   82.80000n     22.7756u  
   83.00000n     71.8993n  
   83.20000n      2.1097n  
   83.40000n      1.0764n  
   83.60000n    668.8585p  
   83.80000n    544.5099p  
   84.00000n    420.1614p  
   84.20000n    306.1303p  
   84.40000n    276.9491p  
   84.60000n    247.7678p  
   84.80000n    218.5866p  
   85.00000n    189.4054p  
   85.20000n    160.2241p  
   85.40000n    145.5519p  
   85.60000n    138.5887p  
   85.80000n    131.6255p  
   86.00000n    124.6623p  
   86.20000n    117.6990p  
   86.40000n    110.7358p  
   86.60000n    103.7726p  
   86.80000n     96.8094p  
   87.00000n     89.8462p  
   87.20000n     82.8829p  
   87.40000n     76.3560p  
   87.60000n     74.3834p  
   87.80000n     72.4109p  
   88.00000n     70.4383p  
   88.20000n     68.4658p  
   88.40000n     66.4932p  
   88.60000n     64.5207p  
   88.80000n     62.5482p  
   89.00000n     60.5756p  
   89.20000n     58.6031p  
   89.40000n     56.6305p  
   89.60000n     54.6580p  
   89.80000n     52.6854p  
   90.00000n     50.7129p  
   90.20000n     48.7403p  
   90.40000n     46.7678p  
   90.60000n     44.7953p  
   90.80000n     42.8227p  
   91.00000n     40.8502p  
   91.20000n     39.8474p  
   91.40000n     38.9606p  
   91.60000n     38.0738p  
   91.80000n     37.1870p  
   92.00000n     36.3003p  
   92.20000n     35.4135p  
   92.40000n     34.5267p  
   92.60000n     33.6399p  
   92.80000n     32.7532p  
   93.00000n     31.8664p  
   93.20000n     20.0917u  
   93.40000n    100.4771u  
   93.60000n     86.3440u  
   93.80000n     69.1502u  
   94.00000n    143.7472n  
   94.20000n      3.4685n  
   94.40000n    479.5475p  
   94.60000n    256.6159p  
   94.80000n    142.5993p  
   95.00000n    101.0967p  
   95.20000n     59.5942p  
   95.40000n     47.6291p  
   95.60000n     42.6359p  
   95.80000n     37.6428p  
   96.00000n     32.6497p  
   96.20000n     27.6566p  
   96.40000n     22.6635p  
   96.60000n     17.6704p  
   96.80000n     14.2669p  
   97.00000n     14.1366p  
   97.20000n     14.0062p  
   97.40000n     13.8758p  
   97.60000n     13.7454p  
   97.80000n     13.6150p  
   98.00000n     13.4846p  
   98.20000n     13.3542p  
   98.40000n     13.2238p  
   98.60000n     13.0934p  
   98.80000n     12.9630p  
   99.00000n     12.8326p  
   99.20000n     12.7022p  
   99.40000n     12.5718p  
   99.60000n     12.2697p  
   99.80000n     11.9118p  
  100.00000n     11.5539p  
  100.20000n     11.1960p  
  100.40000n     10.8381p  
  100.60000n     10.4802p  
  100.80000n     10.1223p  
  101.00000n      9.7645p  
  101.20000n      9.4066p  
  101.40000n      9.0487p  
  101.60000n      8.6908p  
  101.80000n      8.3329p  
  102.00000n      7.9750p  
  102.20000n     95.9422u  
  102.40000n    215.9023u  
  102.60000n     92.7539u  
  102.80000n     22.9362u  
  103.00000n     70.6033n  
  103.20000n      2.0817n  
  103.40000n      1.0667n  
  103.60000n    655.3107p  
  103.80000n    540.1226p  
  104.00000n    424.9345p  
  104.20000n    309.7464p  
  104.40000n    272.3453p  
  104.60000n    245.4889p  
  104.80000n    218.6325p  
  105.00000n    191.7761p  
  105.20000n    164.9197p  
  105.40000n    142.4833p  
  105.60000n    136.0250p  
  105.80000n    129.5668p  
  106.00000n    123.1085p  
  106.20000n    116.6503p  
  106.40000n    110.1921p  
  106.60000n    103.7338p  
  106.80000n     97.2756p  
  107.00000n     90.8173p  
  107.20000n     84.3591p  
  107.40000n     77.9008p  
  107.60000n     73.1653p  
  107.80000n     71.3140p  
  108.00000n     69.4627p  
  108.20000n     67.6113p  
  108.40000n     65.7600p  
  108.60000n     63.9087p  
  108.80000n     62.0573p  
  109.00000n     60.2060p  
  109.20000n     58.3547p  
  109.40000n     56.5033p  
  109.60000n     54.6520p  
  109.80000n     52.8007p  
  110.00000n     50.9493p  
  110.20000n     49.0980p  
  110.40000n     47.2467p  
  110.60000n     45.3953p  
  110.80000n     43.5440p  
  111.00000n     41.6927p  
  111.20000n     39.8413p  
  111.40000n     38.6719p  
  111.60000n     37.8151p  
  111.80000n     36.9583p  
  112.00000n     36.1015p  
  112.20000n     35.2446p  
  112.40000n     34.3878p  
  112.60000n     33.5310p  
  112.80000n     32.6742p  
  113.00000n     31.8174p  
  113.20000n     19.8521u  
  113.40000n     98.0484u  
  113.60000n     89.1719u  
  113.80000n     81.6855u  
  114.00000n    143.1489n  
  114.20000n      3.6430n  
  114.40000n    498.8888p  
  114.60000n    244.1780p  
  114.80000n    163.4352p  
  115.00000n    118.5050p  
  115.20000n     99.7614p  
  115.40000n     81.0178p  
  115.60000n     63.7165p  
  115.80000n     57.8683p  
  116.00000n     52.0202p  
  116.20000n     46.1721p  
  116.40000n     40.3240p  
  116.60000n     34.4759p  
  116.80000n     28.6277p  
  117.00000n     22.7796p  
  117.20000n     16.9315p  
  117.40000n     11.0834p  
  117.60000n      5.2352p  
  117.80000n      3.7994p  
  118.00000n      3.6760p  
  118.20000n      3.5526p  
  118.40000n      3.4292p  
  118.60000n      3.3058p  
  118.80000n      3.1824p  
  119.00000n      3.0589p  
  119.20000n      2.9355p  
  119.40000n      2.8121p  
  119.60000n      2.6887p  
  119.80000n      2.5653p  
  120.00000n      2.4418p  
  120.20000n      2.3184p  
  120.40000n      2.1950p  
  120.60000n      2.0729p  
  120.80000n      2.0754p  
  121.00000n      2.0778p  
  121.20000n      2.0803p  
  121.40000n      2.0828p  
  121.60000n      2.0852p  
  121.80000n      2.0877p  
  122.00000n      2.0902p  
  122.20000n     97.2743u  
  122.40000n    216.4067u  
  122.60000n     93.0742u  
  122.80000n     24.6606u  
  123.00000n     88.8433n  
  123.20000n      2.2562n  
  123.40000n      1.1708n  
  123.60000n    707.9744p  
  123.80000n    556.3868p  
  124.00000n    404.7992p  
  124.20000n    336.1604p  
  124.40000n    302.5691p  
  124.60000n    268.9778p  
  124.80000n    235.3865p  
  125.00000n    201.7952p  
  125.20000n    168.2039p  
  125.40000n    147.9655p  
  125.60000n    140.1983p  
  125.80000n    132.4311p  
  126.00000n    124.6639p  
  126.20000n    116.8967p  
  126.40000n    109.1295p  
  126.60000n    101.3622p  
  126.80000n     93.5950p  
  127.00000n     85.8278p  
  127.20000n     78.0606p  
  127.40000n     74.2698p  
  127.60000n     72.1826p  
  127.80000n     70.0954p  
  128.00000n     68.0082p  
  128.20000n     65.9210p  
  128.40000n     63.8338p  
  128.60000n     61.7467p  
  128.80000n     59.6595p  
  129.00000n     57.5723p  
  129.20000n     55.4851p  
  129.40000n     53.3979p  
  129.60000n     51.3107p  
  129.80000n     49.2235p  
  130.00000n     47.1363p  
  130.20000n     45.0492p  
  130.40000n     42.9620p  
  130.60000n     41.4117p  
  130.80000n     40.5262p  
  131.00000n     39.6407p  
  131.20000n     38.7552p  
  131.40000n     37.8697p  
  131.60000n     36.9842p  
  131.80000n     36.0987p  
  132.00000n     35.2132p  
  132.20000n     34.3277p  
  132.40000n     33.4422p  
  132.60000n     32.5567p  
  132.80000n     31.6712p  
  133.00000n     30.7857p  
  133.20000n     20.5564u  
  133.40000n    104.8186u  
  133.60000n    216.2869u  
  133.80000n     95.9936u  
  134.00000n    136.8624n  
  134.20000n      3.0079n  
  134.40000n    572.3316p  
  134.60000n    282.7951p  
  134.80000n    151.0716p  
  135.00000n    118.4624p  
  135.20000n     85.8532p  
  135.40000n     60.0202p  
  135.60000n     56.5293p  
  135.80000n     53.0384p  
  136.00000n     49.5475p  
  136.20000n     46.0565p  
  136.40000n     42.5656p  
  136.60000n     39.0747p  
  136.80000n     35.5838p  
  137.00000n     33.2020p  
  137.20000n     31.0140p  
  137.40000n     28.8261p  
  137.60000n     26.6382p  
  137.80000n     24.4502p  
  138.00000n     22.2623p  
  138.20000n     20.0744p  
  138.40000n     17.8864p  
  138.60000n     15.6985p  
  138.80000n     13.5106p  
  139.00000n     11.3226p  
  139.20000n      9.1347p  
  139.40000n      6.9468p  
  139.60000n      4.7588p  
  139.80000n      3.9875p  
  140.00000n      4.1428p  
  140.20000n      4.2981p  
  140.40000n      4.4534p  
  140.60000n      4.6087p  
  140.80000n      4.7640p  
  141.00000n      4.9193p  
  141.20000n      5.0746p  
  141.40000n      5.2299p  
  141.60000n      5.3852p  
  141.80000n      5.5405p  
  142.00000n      5.6958p  
  142.20000n     95.0215u  
  142.40000n    216.1230u  
  142.60000n     92.6928u  
  142.80000n     22.9936u  
  143.00000n     69.8497n  
  143.20000n      2.0492n  
  143.40000n      1.0553n  
  143.60000n    640.7683p  
  143.80000n    534.3886p  
  144.00000n    428.0088p  
  144.20000n    321.6291p  
  144.40000n    267.1423p  
  144.60000n    242.5118p  
  144.80000n    217.8813p  
  145.00000n    193.2508p  
  145.20000n    168.6204p  
  145.40000n    143.9899p  
  145.60000n    133.2283p  
  145.80000n    127.2572p  
  146.00000n    121.2861p  
  146.20000n    115.3149p  
  146.40000n    109.3438p  
  146.60000n    103.3726p  
  146.80000n     97.4015p  
  147.00000n     91.4303p  
  147.20000n     85.4592p  
  147.40000n     79.4881p  
  147.60000n     73.5169p  
  147.80000n     70.1363p  
  148.00000n     68.4027p  
  148.20000n     66.6691p  
  148.40000n     64.9355p  
  148.60000n     63.2020p  
  148.80000n     61.4684p  
  149.00000n     59.7348p  
  149.20000n     58.0013p  
  149.40000n     56.2677p  
  149.60000n     54.5341p  
  149.80000n     52.8005p  
  150.00000n     51.0670p  
  150.20000n     49.3334p  
  150.40000n     47.5998p  
  150.60000n     45.8663p  
  150.80000n     44.1327p  
  151.00000n     42.3991p  
  151.20000n     40.6655p  
  151.40000n     38.9320p  
  151.60000n     37.5539p  
  151.80000n     36.7271p  
  152.00000n     35.9002p  
  152.20000n     35.0734p  
  152.40000n     34.2466p  
  152.60000n     33.4197p  
  152.80000n     32.5929p  
  153.00000n     31.7661p  
  153.20000n     19.8635u  
  153.40000n     92.5791u  
  153.60000n    162.6716u  
  153.80000n     98.3575u  
  154.00000n    201.2137n  
  154.20000n      3.2027n  
  154.40000n    534.6856p  
  154.60000n    274.1033p  
  154.80000n    150.7279p  
  155.00000n    126.4928p  
  155.20000n    102.5353p  
  155.40000n     78.5777p  
  155.60000n     65.2542p  
  155.80000n     58.2178p  
  156.00000n     51.1813p  
  156.20000n     44.1448p  
  156.40000n     37.1084p  
  156.60000n     30.0719p  
  156.80000n     23.0354p  
  157.00000n     15.9990p  
  157.20000n      8.9625p  
  157.40000n      6.3173p  
  157.60000n      6.2758p  
  157.80000n      6.2344p  
  158.00000n      6.1929p  
  158.20000n      6.1514p  
  158.40000n      6.1099p  
  158.60000n      6.0684p  
  158.80000n      6.0270p  
  159.00000n      5.9855p  
  159.20000n      5.9440p  
  159.40000n      5.9025p  
  159.60000n      5.8610p  
  159.80000n      5.8195p  
  160.00000n      5.7781p  
  160.20000n      5.6128p  
  160.40000n      5.4139p  
  160.60000n      5.2149p  
  160.80000n      5.0160p  
  161.00000n      4.8170p  
  161.20000n      4.6181p  
  161.40000n      4.4191p  
  161.60000n      4.2202p  
  161.80000n      4.0212p  
  162.00000n      3.8223p  
  162.20000n     97.3595u  
  162.40000n    217.2132u  
  162.60000n     92.7632u  
  162.80000n     20.5986u  
  163.00000n     56.4702n  
  163.20000n      2.0620n  
  163.40000n      1.0961n  
  163.60000n    713.8903p  
  163.80000n    527.1691p  
  164.00000n    434.2708p  
  164.20000n    341.3726p  
  164.40000n    271.8036p  
  164.60000n    250.7153p  
  164.80000n    229.6269p  
  165.00000n    208.5386p  
  165.20000n    187.4503p  
  165.40000n    166.3620p  
  165.60000n    145.2737p  
  165.80000n    124.4970p  
  166.00000n    119.1182p  
  166.20000n    113.7394p  
  166.40000n    108.3607p  
  166.60000n    102.9819p  
  166.80000n     97.6031p  
  167.00000n     92.2243p  
  167.20000n     86.8455p  
  167.40000n     81.4667p  
  167.60000n     76.0880p  
  167.80000n     70.7092p  
  168.00000n     65.3304p  
  168.20000n     61.8986p  
  168.40000n     60.4335p  
  168.60000n     58.9684p  
  168.80000n     57.5033p  
  169.00000n     56.0383p  
  169.20000n     54.5732p  
  169.40000n     53.1081p  
  169.60000n     51.6431p  
  169.80000n     50.1780p  
  170.00000n     48.7129p  
  170.20000n     47.2479p  
  170.40000n     45.7828p  
  170.60000n     44.3177p  
  170.80000n     42.8526p  
  171.00000n     41.3876p  
  171.20000n     39.9225p  
  171.40000n     38.4574p  
  171.60000n     36.9924p  
  171.80000n     35.5273p  
  172.00000n     34.4857p  
  172.20000n     33.7531p  
  172.40000n     33.0206p  
  172.60000n     32.2880p  
  172.80000n     31.5554p  
  173.00000n     30.8229p  
  173.20000n     21.2399u  
  173.40000n     88.9173u  
  173.60000n    128.4915u  
  173.80000n    103.1165u  
  174.00000n     65.2234n  
  174.20000n      2.7592n  
  174.40000n    532.4689p  
  174.60000n    210.1945p  
  174.80000n    127.0159p  
  175.00000n     98.7962p  
  175.20000n     70.5765p  
  175.40000n     63.3360p  
  175.60000n     56.8941p  
  175.80000n     50.4522p  
  176.00000n     44.0103p  
  176.20000n     37.7051p  
  176.40000n     35.3887p  
  176.60000n     33.0723p  
  176.80000n     30.7558p  
  177.00000n     28.4394p  
  177.20000n     26.1230p  
  177.40000n     23.8065p  
  177.60000n     21.4901p  
  177.80000n     19.1737p  
  178.00000n     16.8572p  
  178.20000n     14.5408p  
  178.40000n     12.2244p  
  178.60000n      9.9079p  
  178.80000n      7.5915p  
  179.00000n      5.2751p  
  179.20000n      2.9586p  
  179.40000n      1.2766p  
  179.60000n      1.2659p  
  179.80000n      1.2552p  
  180.00000n      1.2444p  
  180.20000n      1.2337p  
  180.40000n      1.2230p  
  180.60000n      1.2122p  
  180.80000n      1.2015p  
  181.00000n      1.1908p  
  181.20000n      1.1800p  
  181.40000n      1.1693p  
  181.60000n      1.1586p  
  181.80000n      1.1479p  
  182.00000n      1.1371p  
  182.20000n     96.3464u  
  182.40000n    215.8133u  
  182.60000n     92.7720u  
  182.80000n     22.8093u  
  183.00000n     71.6652n  
  183.20000n      2.1043n  
  183.40000n      1.0745n  
  183.60000n    666.2742p  
  183.80000n    543.7493p  
  184.00000n    421.2243p  
  184.20000n    304.7660p  
  184.40000n    276.0583p  
  184.60000n    247.3506p  
  184.80000n    218.6429p  
  185.00000n    189.9353p  
  185.20000n    161.2276p  
  185.40000n    144.9556p  
  185.60000n    138.0948p  
  185.80000n    131.2339p  
  186.00000n    124.3730p  
  186.20000n    117.5121p  
  186.40000n    110.6512p  
  186.60000n    103.7903p  
  186.80000n     96.9294p  
  187.00000n     90.0685p  
  187.20000n     83.2076p  
  187.40000n     76.3468p  
  187.60000n     74.1484p  
  187.80000n     72.2000p  
  188.00000n     70.2515p  
  188.20000n     68.3031p  
  188.40000n     66.3547p  
  188.60000n     64.4063p  
  188.80000n     62.4578p  
  189.00000n     60.5094p  
  189.20000n     58.5610p  
  189.40000n     56.6126p  
  189.60000n     54.6642p  
  189.80000n     52.7157p  
  190.00000n     50.7673p  
  190.20000n     48.8189p  
  190.40000n     46.8705p  
  190.60000n     44.9220p  
  190.80000n     42.9736p  
  191.00000n     41.0252p  
  191.20000n     39.7848p  
  191.40000n     38.9038p  
  191.60000n     38.0229p  
  191.80000n     37.1419p  
  192.00000n     36.2610p  
  192.20000n     35.3800p  
  192.40000n     34.4991p  
  192.60000n     33.6181p  
  192.80000n     32.7371p  
  193.00000n     31.8562p  
  193.20000n     20.0472u  
  193.40000n    100.0358u  
  193.60000n     86.4124u  
  193.80000n     71.3745u  
  194.00000n    145.1451n  
  194.20000n      3.6257n  
  194.40000n    493.0356p  
  194.60000n    255.0484p  
  194.80000n    137.8287p  
  195.00000n    108.7236p  
  195.20000n     79.6184p  
  195.40000n     62.4349p  
  195.60000n     58.8081p  
  195.80000n     55.1813p  
  196.00000n     51.5545p  
  196.20000n     47.9277p  
  196.40000n     44.3010p  
  196.60000n     40.6742p  
  196.80000n     37.0474p  
  197.00000n     34.0750p  
  197.20000n     31.9973p  
  197.40000n     29.9196p  
  197.60000n     27.8419p  
  197.80000n     25.7642p  
  198.00000n     23.6865p  
  198.20000n     21.6088p  
  198.40000n     19.5311p  
  198.60000n     17.4534p  
  198.80000n     15.3757p  
  199.00000n     13.2980p  
  199.20000n     11.2203p  
  199.40000n      9.1426p  
  199.60000n      7.0649p  
  199.80000n      4.9872p  
  200.00000n      2.9095p  
y
   avgpower=  8.1625E-06  from=  0.0000E+00     to=  2.0000E-08
   maxpower=  2.5507E-04    at=  1.3365E-07
               from=  0.0000E+00    to=  2.0000E-07

          ***** job concluded
1****** HSPICE  --  A-2007.09  32-BIT    (Aug 28 2007) 02:59:15 09/26/2014 winnt
 ******  
 *2:1 mux static nmos for article tehran                                        
  ******  job statistics summary           tnom=  25.000 temp=  25.000          
 ******  

           total memory used        158 kbytes

  # nodes =       7 # elements=       8
  # diodes=       0 # bjts    =       0 # jfets   =       0 # mosfets =       4
  # va device =       0

    analysis           time    # points   tot. iter  conv.iter

    op point           0.03           1          31
    transient          0.11        1001        1815         469 rev=        55
    readin             0.02
    errchk             0.03
    setup              0.02
    output             0.02
           total cpu time          0.25 seconds
               job started at  02:59:15 09/26/2014
               job ended   at  02:59:16 09/26/2014


 Init: hspice initialization file: C:\synopsys\Hspice_A-2007.09\hspice.ini
  lic: Release hspice token(s) 
